# Open-boundaries
 &OBCS_PARM01
 OB_Iwest=1*0,
 OB_Ieast=1*-1,
 OB_Jnorth=2048*0,
 OB_Jsouth=2048*0,
 useOBCSsponge=.FALSE.,
 useOBCSprescribe=.TRUE.,
 OBEuFile = '../indata/Ue.bin',
# OBWuFile = 'Uw.bin',
 OBEtFile = '../indata/Te.bin',
# OBWtFile = 'Tw.bin',
 /

# Orlanski parameters
 &OBCS_PARM02
/

# Sponge layer parameters
 &OBCS_PARM03
 Urelaxobcsinner=1000.,
 Urelaxobcsbound=100.,
 Vrelaxobcsinner=1000.0,
 Vrelaxobcsbound=100.0,
 spongeThickness=10,
 /
